OpenDSS_files/IEEETestCases/13Bus/IEEE13Nodeckt_VLL.Txt

SYMMETRICAL COMPONENT PHASE-PHASE VOLTAGES BY BUS (for 3-phase buses)

Bus        Mag:   V1 (kV)    p.u.     V2 (kV)   %V2/V1    V0 (kV)    %V0/V1

sourcebus       115          1   0.002904   0.002526 1.275E-014 1.109E-014
650            4.16     0.9999  0.0001388   0.003336 5.084E-016 1.222E-014
rg60          4.367       1.05    0.02581     0.5909 7.19E-016 1.646E-014
633           4.215      1.013    0.02128     0.5048 3.216E-016 7.628E-015
634          0.4765     0.9926   0.002838     0.5957 5.124E-017 1.075E-014
671           4.142     0.9958    0.07311      1.765 2.542E-016 6.137E-015
645           2.449     0.5887          0          0         0         0
646           2.445     0.5878          0          0         0         0
692           4.142     0.9958    0.07311      1.765 2.542E-016 6.137E-015
675           4.134     0.9937     0.0786      1.901 4.099E-016 9.916E-015
611           2.308     0.5547          0          0         0         0
652           2.343     0.5631          0          0         0         0
670           4.195      1.008    0.03877     0.9242 3.411E-016 8.13E-015
632           4.226      1.016    0.02123     0.5024 1.137E-016 2.69E-015
680           4.142     0.9958    0.07311      1.765 7.28E-016 1.757E-014
684           2.356     0.5663          0          0         0         0
